/*--------------------------------*- C++ -*----------------------------------*\
  =========                 |
  \\      /  F ield         | OpenFOAM: The Open Source CFD Toolbox
   \\    /   O peration     | Website:  https://openfoam.org
    \\  /    A nd           | Version:  7
     \\/     M anipulation  |
\*---------------------------------------------------------------------------*/
FoamFile
{
    version     2.0;
    format      ascii;
    class       volScalarField;
    object      omega;
}
// * * * * * * * * * * * * * * * * * * * * * * * * * * * * * * * * * * * * * //

dimensions      [0 0 -1 0 0 0 0];
internalField   uniform 24.99;

boundaryField
{
    inlet
    {
        type            fixedValue;
        value           uniform 24.99;
    }
    outlet
    {
        type            zeroGradient;
    }
    bottom
    {
        type            omegaWallFunction;
        value           uniform 0;
    }
    top
    {
        type            omegaWallFunction;
        value           uniform 0;
    }
    back
    {
        type            omegaWallFunction;
        value           uniform 0;
    }
    front
    {
        type            omegaWallFunction;
        value           uniform 0;
    }
    cylinderGroup
    {
        type            omegaWallFunction;
        value           uniform 0;
    }
}



// ************************************************************************* //
